
**** 11/18/16 14:14:22 ***** PSpice 16.6.0 (October 2012) ***** ID# 0 ********

 ** Profile: "SCHEMATIC1-test"  [ H:\Uni Stuff\Year 3\Project\Pspice\test AD549\test AD549-PSpiceFiles\SCHEMATIC1\test.sim ] 


 ****     CIRCUIT DESCRIPTION


******************************************************************************




** Creating circuit file "test.cir" 
** WARNING: THIS AUTOMATICALLY GENERATED FILE MAY BE OVERWRITTEN BY SUBSEQUENT SIMULATIONS

*Libraries: 
* Profile Libraries :
* Local Libraries :
* From [PSPICE NETLIST] section of H:\cdssetup\OrCAD_PSpice/16.6.0/PSpice.ini file:
.lib "nom.lib" 

*Analysis directives: 
.DC LIN I_I1 0 100p 0.1p 
.OPTIONS ADVCONV
.PROBE64 V(alias(*)) I(alias(*)) W(alias(*)) D(alias(*)) NOISE(alias(*)) 
.INC "..\SCHEMATIC1.net" 



**** INCLUDING SCHEMATIC1.net ****
* source TEST AD549
X_U1         N00176 N00183 N000482 N00200 N00340 AD549 
V_V1         N000482 0 5Vdc
V_V2         0 N00200 5Vdc
I_I1         N00183 N00176 DC 10pAdc  
R_R1         N00176 N00340  5G TC=0,0 
C_C1         N00176 N00340  10p  TC=0,0 
R_R2         N00340 0  1k TC=0,0 

**** RESUMING test.cir ****
.END

ERROR(ORPSIM-15108): Subcircuit AD549 used by X_U1 is undefined
